# MODFLOW2000 Discretization File
 1  90  80  101  4  0
 0
         0    40.000(10E12.4)                    0     DELTA-X or C
         0    40.000(10E12.4)                    0     DELTA-Y or R
        29     1.000(10e12.4)                   -1     TOP of Model
  9.7302e+01  9.8561e+01  9.8009e+01  9.8210e+01  9.8086e+01  9.9377e+01  9.9654e+01  9.9657e+01  9.9647e+01  9.9638e+01
  9.9630e+01  9.9614e+01  9.9605e+01  9.9552e+01  9.9541e+01  9.9551e+01  9.9514e+01  9.9507e+01  9.8989e+01  9.8925e+01
  9.8802e+01  9.8813e+01  9.8806e+01  9.7303e+01  9.8850e+01  9.8954e+01  9.8916e+01  9.8909e+01  9.8737e+01  9.8779e+01
  9.8665e+01  9.8567e+01  9.8791e+01  9.8717e+01  9.8730e+01  9.8858e+01  9.8633e+01  1.0026e+02  1.0191e+02  1.0212e+02
  1.0226e+02  1.0234e+02  1.0314e+02  1.1291e+02  1.0868e+02  1.0773e+02  1.0371e+02  1.0303e+02  1.0388e+02  1.0506e+02
  1.0822e+02  1.1815e+02  1.2087e+02  1.1387e+02  1.1932e+02  1.2376e+02  1.2539e+02  1.3056e+02  1.3491e+02  1.3453e+02
  1.2645e+02  1.3004e+02  1.2848e+02  1.2135e+02  1.2123e+02  1.2443e+02  1.2958e+02  1.3420e+02  1.3597e+02  1.3661e+02
  1.3737e+02  1.3749e+02  1.3698e+02  1.3557e+02  1.3347e+02  1.3147e+02  1.2902e+02  1.2681e+02  1.2610e+02  1.2736e+02
  9.7177e+01  9.8188e+01  9.7848e+01  9.9024e+01  9.9519e+01  9.9583e+01  9.9670e+01  9.9661e+01  9.9652e+01  9.9642e+01
  9.9638e+01  9.9613e+01  9.9603e+01  9.9589e+01  9.9459e+01  9.9523e+01  9.9501e+01  9.9298e+01  9.9055e+01  9.8929e+01
  9.8947e+01  9.8858e+01  9.9049e+01  9.8850e+01  9.8437e+01  9.8884e+01  9.8917e+01  9.8974e+01  9.8749e+01  9.9448e+01
  9.8698e+01  9.8559e+01  9.8959e+01  9.8946e+01  9.9250e+01  9.8893e+01  9.8699e+01  1.0188e+02  1.0203e+02  1.0223e+02
  1.0233e+02  1.0242e+02  1.0927e+02  1.1265e+02  1.0909e+02  1.0325e+02  1.0237e+02  1.0382e+02  1.0477e+02  1.0560e+02
  1.0639e+02  1.0854e+02  1.1374e+02  1.1187e+02  1.1503e+02  1.1789e+02  1.2077e+02  1.2291e+02  1.2816e+02  1.2641e+02
  1.2438e+02  1.2789e+02  1.2733e+02  1.2105e+02  1.2099e+02  1.2630e+02  1.3286e+02  1.3489e+02  1.3588e+02  1.3691e+02
  1.3765e+02  1.3791e+02  1.3782e+02  1.3735e+02  1.3647e+02  1.3421e+02  1.2812e+02  1.2464e+02  1.2252e+02  1.2282e+02
  9.8371e+01  9.8599e+01  9.9303e+01  9.9209e+01  9.9397e+01  9.9376e+01  9.9642e+01  9.9631e+01  9.9618e+01  9.9610e+01
  9.9637e+01  9.9470e+01  9.9469e+01  9.9512e+01  9.9496e+01  9.9517e+01  9.9518e+01  9.9238e+01  9.8997e+01  9.8809e+01
  9.8669e+01  9.8847e+01  9.8960e+01  9.8888e+01  9.8917e+01  9.8658e+01  9.7423e+01  9.8963e+01  9.8934e+01  9.8718e+01
  9.8681e+01  9.8634e+01  9.8878e+01  9.9130e+01  9.8950e+01  9.9030e+01  9.8929e+01  1.0185e+02  1.0210e+02  1.0226e+02
  1.0246e+02  1.0218e+02  1.0548e+02  1.0851e+02  1.0300e+02  1.0416e+02  1.0290e+02  1.0388e+02  1.0609e+02  1.0830e+02
  1.1168e+02  1.0752e+02  1.0881e+02  1.0894e+02  1.1251e+02  1.0977e+02  1.1568e+02  1.1762e+02  1.1948e+02  1.2024e+02
  1.2678e+02  1.2601e+02  1.2366e+02  1.2105e+02  1.2050e+02  1.2874e+02  1.3410e+02  1.3529e+02  1.3584e+02  1.3688e+02
  1.3717e+02  1.3744e+02  1.3786e+02  1.3822e+02  1.3820e+02  1.3432e+02  1.2931e+02  1.2467e+02  1.1829e+02  1.2005e+02
  9.9025e+01  9.9249e+01  9.9108e+01  9.9473e+01  9.9515e+01  9.9655e+01  9.9644e+01  9.9632e+01  9.9420e+01  9.9445e+01
  9.9458e+01  9.9443e+01  9.9518e+01  9.9498e+01  9.9489e+01  9.9479e+01  9.9282e+01  9.9064e+01  9.9084e+01  9.9005e+01
  9.9097e+01  9.9004e+01  9.8944e+01  9.9030e+01  9.8832e+01  9.8958e+01  9.8888e+01  9.8706e+01  9.8966e+01  9.8956e+01
  9.8861e+01  9.8718e+01  9.8559e+01  9.9197e+01  9.9188e+01  9.9114e+01  9.8914e+01  1.0189e+02  1.0220e+02  1.0219e+02
  1.0216e+02  1.0240e+02  1.0253e+02  1.0171e+02  1.0210e+02  1.0292e+02  1.0361e+02  1.0382e+02  1.0841e+02  1.1509e+02
  1.1705e+02  1.1196e+02  1.1352e+02  1.1586e+02  1.1834e+02  1.1741e+02  1.1374e+02  1.1173e+02  1.1499e+02  1.2115e+02
  1.2539e+02  1.2590e+02  1.1883e+02  1.1742e+02  1.1951e+02  1.2775e+02  1.3049e+02  1.3314e+02  1.3685e+02  1.3676e+02
  1.3622e+02  1.3636e+02  1.3683e+02  1.3788e+02  1.3805e+02  1.3406e+02  1.2866e+02  1.2138e+02  1.1646e+02  1.1764e+02
  9.9011e+01  9.9250e+01  9.9484e+01  9.9478e+01  9.9539e+01  9.9655e+01  9.9458e+01  9.9454e+01  9.9452e+01  9.9461e+01
  9.9470e+01  9.9552e+01  9.9513e+01  9.9499e+01  9.9495e+01  9.9170e+01  9.9163e+01  9.8928e+01  9.8966e+01  9.8958e+01
  9.8897e+01  9.8849e+01  9.8894e+01  9.8940e+01  9.8912e+01  9.9057e+01  9.8894e+01  9.8912e+01  9.8962e+01  9.8177e+01
  9.9032e+01  9.7601e+01  9.8983e+01  9.9193e+01  9.9394e+01  9.9091e+01  1.0069e+02  1.0204e+02  1.0216e+02  1.0229e+02
  1.0242e+02  1.0279e+02  1.0277e+02  1.0254e+02  1.0284e+02  1.0433e+02  1.0476e+02  1.0469e+02  1.1014e+02  1.1575e+02
  1.2012e+02  1.2137e+02  1.2531e+02  1.3040e+02  1.3088e+02  1.2603e+02  1.2573e+02  1.2491e+02  1.1539e+02  1.2376e+02
  1.2651e+02  1.2630e+02  1.2072e+02  1.1571e+02  1.2141e+02  1.2431e+02  1.2555e+02  1.2945e+02  1.3313e+02  1.3636e+02
  1.3631e+02  1.3502e+02  1.3386e+02  1.3569e+02  1.3659e+02  1.3114e+02  1.2718e+02  1.2152e+02  1.1384e+02  1.1796e+02
  9.9316e+01  9.9190e+01  9.9358e+01  9.9462e+01  9.9465e+01  9.9466e+01  9.9462e+01  9.9466e+01  9.9463e+01  9.9465e+01
  9.9402e+01  9.9548e+01  9.9520e+01  9.9511e+01  9.9502e+01  9.9181e+01  9.9014e+01  9.8767e+01  9.8885e+01  9.9092e+01
  9.8881e+01  9.8890e+01  9.8902e+01  9.8931e+01  9.8903e+01  9.9014e+01  9.8828e+01  9.8834e+01  9.8887e+01  9.9026e+01
  9.9039e+01  9.8558e+01  9.8852e+01  9.8998e+01  9.9029e+01  9.8814e+01  1.0196e+02  1.0191e+02  1.0361e+02  1.1860e+02
  1.0260e+02  1.0271e+02  1.0298e+02  1.0341e+02  1.0384e+02  1.0519e+02  1.0883e+02  1.1115e+02  1.1740e+02  1.1816e+02
  1.2335e+02  1.2610e+02  1.2986e+02  1.3731e+02  1.3878e+02  1.3540e+02  1.3258e+02  1.3131e+02  1.2132e+02  1.2543e+02
  1.2575e+02  1.2483e+02  1.2074e+02  1.1678e+02  1.1881e+02  1.2329e+02  1.2432e+02  1.2543e+02  1.2874e+02  1.3309e+02
  1.3586e+02  1.3376e+02  1.3131e+02  1.3062e+02  1.3126e+02  1.2609e+02  1.2452e+02  1.1558e+02  1.1323e+02  1.1421e+02
  9.8879e+01  9.9344e+01  9.9484e+01  9.9459e+01  9.9474e+01  9.9474e+01  9.9380e+01  9.9476e+01  9.9479e+01  9.9570e+01
  9.9590e+01  9.9557e+01  9.9523e+01  9.9514e+01  9.9269e+01  9.9022e+01  9.8854e+01  9.9024e+01  9.9115e+01  9.9146e+01
  9.9071e+01  9.8969e+01  9.8869e+01  9.8910e+01  9.8956e+01  9.9016e+01  9.8969e+01  9.9203e+01  9.9275e+01  9.9178e+01
  9.8750e+01  1.0268e+02  9.8279e+01  9.9025e+01  9.9424e+01  9.8986e+01  1.0183e+02  1.0348e+02  1.3543e+02  1.1810e+02
  1.0271e+02  1.0262e+02  1.0318e+02  1.0511e+02  1.0564e+02  1.0541e+02  1.0546e+02  1.2786e+02  1.2397e+02  1.2209e+02
  1.2462e+02  1.2872e+02  1.3352e+02  1.3922e+02  1.4243e+02  1.4288e+02  1.4040e+02  1.3565e+02  1.3075e+02  1.2888e+02
  1.2609e+02  1.2146e+02  1.2110e+02  1.1681e+02  1.1807e+02  1.2001e+02  1.1858e+02  1.1682e+02  1.2175e+02  1.2475e+02
  1.2981e+02  1.3072e+02  1.2758e+02  1.2532e+02  1.2300e+02  1.2018e+02  1.1591e+02  1.1214e+02  1.1149e+02  1.1044e+02
  9.8906e+01  9.9076e+01  9.9101e+01  9.9479e+01  9.9515e+01  9.9395e+01  9.9454e+01  9.9581e+01  9.9574e+01  9.9606e+01
  9.9575e+01  9.9357e+01  9.9531e+01  9.9446e+01  9.9183e+01  9.8925e+01  9.8783e+01  9.8819e+01  9.9096e+01  9.9051e+01
  9.9097e+01  9.8895e+01  9.8868e+01  9.8962e+01  9.8967e+01  9.9109e+01  9.9215e+01  9.9397e+01  9.9479e+01  9.8667e+01
  9.8570e+01  9.8656e+01  9.8263e+01  9.8626e+01  9.9112e+01  9.9633e+01  1.0597e+02  1.3615e+02  1.3396e+02  1.0588e+02
  1.0254e+02  1.0198e+02  1.0217e+02  1.0502e+02  1.0646e+02  1.0590e+02  1.0579e+02  1.1467e+02  1.2801e+02  1.2177e+02
  1.2416e+02  1.2882e+02  1.3452e+02  1.4116e+02  1.4944e+02  1.4814e+02  1.4464e+02  1.3831e+02  1.3320e+02  1.2967e+02
  1.2455e+02  1.1710e+02  1.1078e+02  1.0944e+02  1.1851e+02  1.1869e+02  1.1921e+02  1.1700e+02  1.1615e+02  1.1804e+02
  1.1908e+02  1.2567e+02  1.2377e+02  1.2134e+02  1.1689e+02  1.1496e+02  1.1198e+02  1.0935e+02  1.0914e+02  1.1777e+02
  9.8183e+01  9.8517e+01  9.9232e+01  9.9366e+01  9.9399e+01  9.9504e+01  9.9582e+01  9.9537e+01  9.9359e+01  9.9587e+01
  9.9581e+01  9.9575e+01  9.9540e+01  9.9232e+01  9.9124e+01  9.8945e+01  9.8881e+01  9.9278e+01  9.9005e+01  9.9089e+01
  9.9230e+01  9.8939e+01  9.8988e+01  9.9134e+01  9.9110e+01  9.9049e+01  9.9284e+01  9.9437e+01  9.9528e+01  9.8966e+01
  9.9029e+01  9.8535e+01  1.0250e+02  9.8894e+01  9.9405e+01  1.0266e+02  1.3429e+02  1.4411e+02  1.3105e+02  1.1570e+02
  1.0616e+02  1.0211e+02  1.0274e+02  1.0422e+02  1.0601e+02  1.1258e+02  1.2779e+02  1.0939e+02  1.2622e+02  1.1762e+02
  1.2086e+02  1.2631e+02  1.3143e+02  1.4092e+02  1.5211e+02  1.4991e+02  1.4484e+02  1.3891e+02  1.3420e+02  1.3053e+02
  1.2425e+02  1.1745e+02  1.0723e+02  1.1224e+02  1.1763e+02  1.1769e+02  1.1531e+02  1.1600e+02  1.1748e+02  1.1618e+02
  1.1663e+02  1.2186e+02  1.2171e+02  1.1573e+02  1.1218e+02  1.1077e+02  1.0958e+02  1.1170e+02  1.1814e+02  1.1306e+02
  9.8743e+01  9.8955e+01  9.8551e+01  9.9280e+01  9.9164e+01  9.9465e+01  9.9562e+01  9.9611e+01  9.9594e+01  9.9598e+01
  9.9592e+01  9.9586e+01  9.9358e+01  9.9034e+01  9.8789e+01  9.9003e+01  9.9120e+01  9.9161e+01  9.9057e+01  9.9208e+01
  9.9225e+01  9.8988e+01  9.9078e+01  9.9154e+01  9.9022e+01  9.9152e+01  9.9291e+01  9.9412e+01  9.9117e+01  9.9044e+01
  9.9146e+01  9.8991e+01  1.0028e+02  1.0027e+02  1.1081e+02  1.2905e+02  1.4399e+02  1.4639e+02  1.3254e+02  1.1642e+02
  1.0878e+02  1.0542e+02  1.0402e+02  1.0416e+02  1.0584e+02  1.0633e+02  1.0687e+02  1.2075e+02  1.1962e+02  1.0898e+02
  1.1498e+02  1.2097e+02  1.2611e+02  1.3419e+02  1.4871e+02  1.4651e+02  1.4266e+02  1.3661e+02  1.3432e+02  1.3155e+02
  1.2138e+02  1.1223e+02  1.0664e+02  1.1013e+02  1.1640e+02  1.1576e+02  1.1265e+02  1.1239e+02  1.1217e+02  1.1358e+02
  1.1437e+02  1.2103e+02  1.2042e+02  1.1771e+02  1.1256e+02  1.0958e+02  1.1284e+02  1.1824e+02  1.0397e+02  1.0108e+02
  9.8025e+01  9.8551e+01  9.9466e+01  9.7808e+01  9.8533e+01  9.9351e+01  9.9441e+01  9.9565e+01  9.9612e+01  9.9552e+01
  9.9380e+01  9.9600e+01  9.9230e+01  9.8903e+01  9.8640e+01  9.8838e+01  9.9090e+01  9.9105e+01  9.9190e+01  9.9241e+01
  9.9246e+01  9.8996e+01  9.9008e+01  9.8859e+01  9.8905e+01  9.9191e+01  9.9391e+01  9.9148e+01  9.8781e+01  9.8956e+01
  9.8818e+01  9.9637e+01  1.0215e+02  1.0361e+02  1.3274e+02  1.4487e+02  1.4856e+02  1.4727e+02  1.3280e+02  1.1561e+02
  1.0786e+02  1.0483e+02  1.0398e+02  1.0344e+02  1.0472e+02  1.0562e+02  1.0495e+02  1.0613e+02  1.0558e+02  1.0648e+02
  1.0712e+02  1.1039e+02  1.1757e+02  1.1312e+02  1.3679e+02  1.4288e+02  1.3780e+02  1.3453e+02  1.3389e+02  1.3054e+02
  1.1786e+02  1.0827e+02  1.0842e+02  1.0909e+02  1.1474e+02  1.1603e+02  1.1445e+02  1.1182e+02  1.1146e+02  1.1081e+02
  1.1082e+02  1.1716e+02  1.1636e+02  1.1235e+02  1.1007e+02  1.1107e+02  1.1843e+02  1.0923e+02  1.0105e+02  9.9752e+01
  9.8392e+01  9.8310e+01  9.8434e+01  9.8748e+01  9.9109e+01  9.8549e+01  9.9058e+01  9.9307e+01  9.9410e+01  9.9479e+01
  9.9662e+01  9.9262e+01  9.9007e+01  9.9008e+01  9.8947e+01  9.9432e+01  9.9223e+01  9.9133e+01  9.9340e+01  9.9214e+01
  9.9175e+01  9.9046e+01  9.9022e+01  9.8795e+01  9.8942e+01  9.9028e+01  9.9105e+01  9.8913e+01  9.9116e+01  9.9171e+01
  9.9625e+01  1.0078e+02  1.0230e+02  1.1794e+02  1.4006e+02  1.4496e+02  1.4813e+02  1.4471e+02  1.3370e+02  1.1496e+02
  1.0742e+02  1.0439e+02  1.0397e+02  1.0236e+02  1.0440e+02  1.0509e+02  1.0537e+02  1.0578e+02  1.0518e+02  1.0450e+02
  1.0438e+02  1.0481e+02  1.0479e+02  1.0378e+02  1.0564e+02  1.2223e+02  1.3028e+02  1.2952e+02  1.3295e+02  1.2973e+02
  1.1276e+02  1.0540e+02  1.0701e+02  1.0986e+02  1.1618e+02  1.1707e+02  1.1577e+02  1.1247e+02  1.1208e+02  1.0926e+02
  1.0894e+02  1.1303e+02  1.1684e+02  1.0998e+02  1.1041e+02  1.1362e+02  1.1531e+02  1.0212e+02  1.0001e+02  9.9621e+01
  9.8245e+01  9.8431e+01  9.8156e+01  9.8618e+01  9.8658e+01  9.9048e+01  9.8702e+01  9.8880e+01  9.9249e+01  9.9318e+01
  9.8998e+01  9.9127e+01  9.8801e+01  9.8675e+01  9.8957e+01  9.9146e+01  9.9080e+01  9.9153e+01  9.9176e+01  9.9120e+01
  9.9218e+01  9.9247e+01  9.8545e+01  9.8839e+01  9.8913e+01  9.9100e+01  9.9111e+01  9.9165e+01  9.9465e+01  9.9574e+01
  1.0014e+02  1.0197e+02  1.1251e+02  1.2995e+02  1.3999e+02  1.4401e+02  1.4585e+02  1.4306e+02  1.2971e+02  1.1593e+02
  1.0802e+02  1.0452e+02  1.0310e+02  1.0170e+02  1.0388e+02  1.0354e+02  1.0305e+02  1.0235e+02  1.0273e+02  1.0122e+02
  1.0144e+02  1.0206e+02  1.0131e+02  1.0142e+02  1.0176e+02  1.0397e+02  1.1936e+02  1.2892e+02  1.3098e+02  1.2021e+02
  1.0707e+02  1.0465e+02  1.0589e+02  1.0844e+02  1.1392e+02  1.1593e+02  1.1786e+02  1.1800e+02  1.1153e+02  1.0852e+02
  1.0851e+02  1.0978e+02  1.0918e+02  1.1014e+02  1.1150e+02  1.1952e+02  1.1191e+02  1.0088e+02  9.9620e+01  9.9690e+01
  9.8844e+01  9.9128e+01  9.8788e+01  9.8523e+01  9.8685e+01  9.8523e+01  9.9005e+01  9.9394e+01  9.8715e+01  9.8819e+01
  9.8753e+01  9.8747e+01  9.8422e+01  9.8740e+01  9.8948e+01  9.8896e+01  9.9130e+01  9.9143e+01  9.9134e+01  9.8999e+01
  9.9063e+01  9.8881e+01  9.8543e+01  9.8874e+01  9.9145e+01  9.9344e+01  9.9216e+01  9.9486e+01  9.9647e+01  1.0026e+02
  1.0138e+02  1.0411e+02  1.1969e+02  1.3453e+02  1.3941e+02  1.4211e+02  1.4169e+02  1.3812e+02  1.2967e+02  1.1462e+02
  1.0645e+02  1.0325e+02  1.0199e+02  1.0382e+02  1.0239e+02  1.0175e+02  1.0135e+02  1.0089e+02  1.0097e+02  1.0116e+02
  1.0098e+02  1.0137e+02  1.0108e+02  1.0143e+02  1.0123e+02  1.0138e+02  1.1416e+02  1.2429e+02  1.2661e+02  1.1290e+02
  1.0358e+02  1.0475e+02  1.0563e+02  1.0668e+02  1.0866e+02  1.1042e+02  1.1446e+02  1.1535e+02  1.1824e+02  1.1017e+02
  1.0824e+02  1.0854e+02  1.0912e+02  1.1196e+02  1.1700e+02  1.1043e+02  1.0241e+02  9.9889e+01  9.9660e+01  9.9667e+01
  9.9013e+01  9.8840e+01  9.9332e+01  9.8736e+01  9.8805e+01  9.8797e+01  9.8743e+01  9.8674e+01  9.8796e+01  9.8852e+01
  9.8217e+01  9.8455e+01  9.8469e+01  9.8797e+01  9.8980e+01  9.8969e+01  9.9054e+01  9.8953e+01  9.8957e+01  9.9027e+01
  9.9098e+01  9.8895e+01  9.8883e+01  9.8951e+01  9.9218e+01  9.9313e+01  9.9518e+01  9.9789e+01  1.0018e+02  1.0055e+02
  1.0163e+02  1.1492e+02  1.2756e+02  1.3486e+02  1.3775e+02  1.3869e+02  1.3602e+02  1.3123e+02  1.2075e+02  1.1045e+02
  1.0597e+02  1.0339e+02  1.0465e+02  1.0488e+02  1.0312e+02  1.0113e+02  1.0140e+02  1.0105e+02  1.0106e+02  1.0103e+02
  1.0105e+02  1.0117e+02  1.0105e+02  1.0110e+02  1.0119e+02  1.0113e+02  1.0232e+02  1.1743e+02  1.1736e+02  1.0516e+02
  1.0308e+02  1.0444e+02  1.0429e+02  1.0480e+02  1.0515e+02  1.0534e+02  1.1340e+02  1.1436e+02  1.1888e+02  1.0923e+02
  1.0828e+02  1.1224e+02  1.1247e+02  1.1394e+02  1.1945e+02  1.1074e+02  1.0088e+02  9.9644e+01  9.9658e+01  9.9678e+01
  9.8781e+01  9.9172e+01  9.9267e+01  9.9124e+01  9.9376e+01  9.8891e+01  9.8630e+01  9.8587e+01  9.8843e+01  9.8579e+01
  9.8603e+01  9.7938e+01  9.7951e+01  9.8543e+01  9.8668e+01  9.8814e+01  9.8997e+01  9.8937e+01  9.8715e+01  9.8977e+01
  9.8960e+01  9.9028e+01  9.8997e+01  9.9165e+01  9.9420e+01  9.9601e+01  9.9880e+01  1.0015e+02  1.0035e+02  1.0148e+02
  1.0811e+02  1.2225e+02  1.2937e+02  1.3327e+02  1.3511e+02  1.3461e+02  1.3150e+02  1.2377e+02  1.1303e+02  1.0646e+02
  1.0497e+02  1.0489e+02  1.0606e+02  1.0659e+02  1.0249e+02  1.0115e+02  1.0107e+02  1.0118e+02  1.0105e+02  1.0091e+02
  1.0107e+02  1.0112e+02  1.0100e+02  1.0094e+02  1.0115e+02  1.0090e+02  1.0096e+02  1.0516e+02  1.0740e+02  1.0275e+02
  1.0319e+02  1.0375e+02  1.0428e+02  1.0491e+02  1.0509e+02  1.0544e+02  1.1080e+02  1.1619e+02  1.1102e+02  1.0776e+02
  1.1232e+02  1.1202e+02  1.1155e+02  1.1918e+02  1.0921e+02  1.0232e+02  9.9995e+01  9.9640e+01  9.9616e+01  9.9584e+01
  9.8859e+01  9.9055e+01  9.9325e+01  9.8840e+01  9.9029e+01  9.9116e+01  9.8876e+01  9.8943e+01  9.8580e+01  9.8394e+01
  9.8198e+01  9.8386e+01  9.8965e+01  9.8315e+01  9.8561e+01  9.8703e+01  9.8790e+01  9.8802e+01  9.9128e+01  9.8938e+01
  9.8846e+01  9.9265e+01  9.9213e+01  9.9381e+01  9.9703e+01  9.9970e+01  1.0022e+02  1.0041e+02  1.0095e+02  1.0325e+02
  1.1415e+02  1.2315e+02  1.2928e+02  1.3153e+02  1.3261e+02  1.2876e+02  1.2429e+02  1.1620e+02  1.0802e+02  1.0516e+02
  1.0437e+02  1.0596e+02  1.0627e+02  1.0543e+02  1.0129e+02  1.0129e+02  1.0114e+02  1.0102e+02  1.0102e+02  1.0084e+02
  1.0111e+02  1.0110e+02  1.0090e+02  1.0101e+02  1.0104e+02  1.0105e+02  1.0113e+02  1.0142e+02  1.0172e+02  1.0348e+02
  1.0391e+02  1.0460e+02  1.0444e+02  1.0424e+02  1.0516e+02  1.0556e+02  1.0637e+02  1.1000e+02  1.0787e+02  1.1081e+02
  1.1051e+02  1.1107e+02  1.1305e+02  1.1781e+02  1.1049e+02  1.0098e+02  9.9625e+01  9.9657e+01  9.9623e+01  9.9535e+01
  1.0289e+02  9.8988e+01  9.8741e+01  9.9388e+01  9.9031e+01  9.9232e+01  9.9357e+01  9.8991e+01  9.8398e+01  9.8163e+01
  9.8341e+01  9.8508e+01  9.8605e+01  9.8537e+01  9.8599e+01  9.8480e+01  9.8500e+01  9.8790e+01  9.8973e+01  9.8883e+01
  9.9165e+01  9.9164e+01  9.9309e+01  9.9919e+01  1.0021e+02  1.0038e+02  1.0061e+02  1.0065e+02  1.0124e+02  1.1235e+02
  1.1929e+02  1.2469e+02  1.2751e+02  1.2895e+02  1.2661e+02  1.2568e+02  1.1642e+02  1.0905e+02  1.0528e+02  1.0416e+02
  1.0494e+02  1.0581e+02  1.0544e+02  1.0305e+02  1.0127e+02  1.0121e+02  1.0100e+02  1.0095e+02  1.0104e+02  1.0095e+02
  1.0084e+02  1.0114e+02  1.0099e+02  1.0098e+02  1.0102e+02  1.0101e+02  1.0111e+02  1.0122e+02  1.0151e+02  1.0346e+02
  1.0382e+02  1.0554e+02  1.0476e+02  1.0429e+02  1.0526e+02  1.0547e+02  1.0631e+02  1.0774e+02  1.1036e+02  1.1213e+02
  1.0975e+02  1.0982e+02  1.1896e+02  1.0748e+02  1.0239e+02  1.0011e+02  9.9647e+01  9.9659e+01  9.9506e+01  9.9620e+01
  1.0282e+02  1.0282e+02  1.0157e+02  9.8664e+01  9.8738e+01  9.8473e+01  9.8814e+01  9.8789e+01  9.8438e+01  9.8005e+01
  9.8266e+01  9.8665e+01  9.8459e+01  9.8524e+01  9.8687e+01  9.8728e+01  9.8679e+01  9.8601e+01  9.8366e+01  9.8725e+01
  9.9243e+01  1.0152e+02  1.0209e+02  1.0148e+02  1.0091e+02  1.0093e+02  1.0096e+02  1.0129e+02  1.0612e+02  1.1404e+02
  1.1970e+02  1.2351e+02  1.2566e+02  1.2565e+02  1.2309e+02  1.1891e+02  1.1172e+02  1.0573e+02  1.0424e+02  1.0436e+02
  1.0522e+02  1.0529e+02  1.0405e+02  1.0208e+02  1.0135e+02  1.0127e+02  1.0094e+02  1.0118e+02  1.0099e+02  1.0103e+02
  1.0102e+02  1.0090e+02  1.0114e+02  1.0079e+02  1.0092e+02  1.0097e+02  1.0109e+02  1.0122e+02  1.0156e+02  1.0404e+02
  1.0523e+02  1.0517e+02  1.0542e+02  1.0570e+02  1.0607e+02  1.0629e+02  1.0675e+02  1.0878e+02  1.1127e+02  1.1155e+02
  1.1062e+02  1.1239e+02  1.1882e+02  1.1059e+02  1.0136e+02  9.9651e+01  9.9658e+01  9.9667e+01  9.9508e+01  9.9614e+01
  1.0287e+02  1.0315e+02  1.0325e+02  1.0302e+02  1.0241e+02  9.8688e+01  9.8840e+01  9.8432e+01  9.8529e+01  9.8414e+01
  9.8949e+01  9.8769e+01  9.8743e+01  9.8850e+01  1.0025e+02  1.0231e+02  1.0252e+02  1.0234e+02  1.0232e+02  1.0192e+02
  1.0180e+02  1.0227e+02  1.0203e+02  1.0194e+02  1.0168e+02  1.0140e+02  1.0129e+02  1.0179e+02  1.1103e+02  1.1585e+02
  1.2009e+02  1.2217e+02  1.2362e+02  1.2069e+02  1.1977e+02  1.1249e+02  1.0738e+02  1.0435e+02  1.0373e+02  1.0454e+02
  1.0525e+02  1.0473e+02  1.0268e+02  1.0141e+02  1.0123e+02  1.0107e+02  1.0113e+02  1.0129e+02  1.0091e+02  1.0094e+02
  1.0088e+02  1.0084e+02  1.0083e+02  1.0081e+02  1.0094e+02  1.0092e+02  1.0106e+02  1.0136e+02  1.0155e+02  1.0495e+02
  1.0601e+02  1.0638e+02  1.0599e+02  1.0565e+02  1.0538e+02  1.0553e+02  1.0684e+02  1.0900e+02  1.0721e+02  1.0851e+02
  1.0867e+02  1.1816e+02  1.0826e+02  1.0268e+02  1.0031e+02  9.9641e+01  9.9647e+01  9.9622e+01  9.9662e+01  9.9500e+01
  1.0277e+02  1.0334e+02  1.0291e+02  1.0315e+02  1.0289e+02  1.0274e+02  1.0309e+02  1.0201e+02  1.0276e+02  1.0276e+02
  1.0248e+02  1.0241e+02  1.0200e+02  1.0187e+02  1.0228e+02  1.0210e+02  1.0223e+02  1.0241e+02  1.0243e+02  1.0153e+02
  1.0202e+02  1.0245e+02  1.0239e+02  1.0216e+02  1.0205e+02  1.0210e+02  1.0171e+02  1.0887e+02  1.1272e+02  1.1610e+02
  1.1875e+02  1.2011e+02  1.1909e+02  1.1845e+02  1.1273e+02  1.0753e+02  1.0473e+02  1.0364e+02  1.0421e+02  1.0478e+02
  1.0424e+02  1.0304e+02  1.0155e+02  1.0131e+02  1.0139e+02  1.0099e+02  1.0110e+02  1.0100e+02  1.0099e+02  1.0106e+02
  1.0090e+02  1.0063e+02  1.0078e+02  1.0084e+02  1.0095e+02  1.0086e+02  1.0103e+02  1.0112e+02  1.0154e+02  1.0559e+02
  1.0673e+02  1.0627e+02  1.0576e+02  1.0555e+02  1.0496e+02  1.0427e+02  1.0637e+02  1.0955e+02  1.0813e+02  1.0895e+02
  1.1184e+02  1.1923e+02  1.0871e+02  1.0134e+02  9.9675e+01  9.9615e+01  9.9612e+01  9.9658e+01  9.9586e+01  9.9188e+01
  1.0279e+02  1.0278e+02  1.0274e+02  1.0250e+02  1.0257e+02  1.0264e+02  1.0249e+02  1.0270e+02  1.0265e+02  1.0267e+02
  1.0248e+02  1.0278e+02  1.0220e+02  1.0208e+02  1.0252e+02  1.0240e+02  1.0230e+02  1.0273e+02  1.0267e+02  1.0174e+02
  1.0173e+02  1.0228e+02  1.0236e+02  1.0230e+02  1.0222e+02  1.0203e+02  1.0318e+02  1.1053e+02  1.1269e+02  1.1543e+02
  1.1731e+02  1.1848e+02  1.1613e+02  1.1379e+02  1.0923e+02  1.0532e+02  1.0358e+02  1.0356e+02  1.0415e+02  1.0440e+02
  1.0348e+02  1.0257e+02  1.0135e+02  1.0123e+02  1.0118e+02  1.0114e+02  1.0123e+02  1.0110e+02  1.0094e+02  1.0105e+02
  1.0095e+02  1.0074e+02  1.0077e+02  1.0092e+02  1.0103e+02  1.0115e+02  1.0125e+02  1.0136e+02  1.0312e+02  1.0528e+02
  1.0391e+02  1.0442e+02  1.0411e+02  1.0403e+02  1.0407e+02  1.0429e+02  1.0551e+02  1.0982e+02  1.1006e+02  1.1024e+02
  1.1958e+02  1.0836e+02  1.0272e+02  1.0030e+02  9.9673e+01  9.9692e+01  9.9635e+01  9.9631e+01  9.9524e+01  9.6099e+01
  1.0323e+02  1.0304e+02  1.0343e+02  1.0293e+02  1.0256e+02  1.0279e+02  1.0350e+02  1.0284e+02  1.0266e+02  1.0293e+02
  1.0273e+02  1.0282e+02  1.0230e+02  1.0237e+02  1.0262e+02  1.0250e+02  1.0241e+02  1.0249e+02  1.0263e+02  1.0238e+02
  1.0190e+02  1.0173e+02  1.0207e+02  1.0223e+02  1.0212e+02  1.0214e+02  1.0895e+02  1.1140e+02  1.1346e+02  1.1450e+02
  1.1581e+02  1.1423e+02  1.1388e+02  1.0948e+02  1.0601e+02  1.0365e+02  1.0319e+02  1.0369e+02  1.0466e+02  1.0407e+02
  1.0242e+02  1.0134e+02  1.0133e+02  1.0128e+02  1.0108e+02  1.0117e+02  1.0117e+02  1.0108e+02  1.0113e+02  1.0110e+02
  1.0091e+02  1.0083e+02  1.0107e+02  1.0121e+02  1.0131e+02  1.0158e+02  1.0157e+02  1.0191e+02  1.0463e+02  1.0500e+02
  1.0344e+02  1.0390e+02  1.0378e+02  1.0362e+02  1.0392e+02  1.0470e+02  1.0572e+02  1.0867e+02  1.1119e+02  1.0956e+02
  1.1863e+02  1.1033e+02  1.0130e+02  9.9528e+01  9.9633e+01  9.9687e+01  9.9663e+01  9.9541e+01  9.6670e+01  9.9528e+01
  1.0323e+02  1.0327e+02  1.0365e+02  1.0289e+02  1.0285e+02  1.0269e+02  1.0346e+02  1.0289e+02  1.0286e+02  1.0271e+02
  1.0277e+02  1.0257e+02  1.0232e+02  1.0244e+02  1.0258e+02  1.0257e+02  1.0234e+02  1.0261e+02  1.0260e+02  1.0231e+02
  1.0219e+02  1.0204e+02  1.0184e+02  1.0193e+02  1.0200e+02  1.0676e+02  1.0969e+02  1.1112e+02  1.1270e+02  1.1357e+02
  1.1336e+02  1.1242e+02  1.0911e+02  1.0618e+02  1.0372e+02  1.0356e+02  1.0359e+02  1.0399e+02  1.0387e+02  1.0277e+02
  1.0197e+02  1.0125e+02  1.0131e+02  1.0118e+02  1.0120e+02  1.0122e+02  1.0114e+02  1.0125e+02  1.0108e+02  1.0107e+02
  1.0112e+02  1.0105e+02  1.0116e+02  1.0096e+02  1.0122e+02  1.0130e+02  1.0157e+02  1.0173e+02  1.0508e+02  1.0327e+02
  1.0321e+02  1.0328e+02  1.0349e+02  1.0368e+02  1.0344e+02  1.0444e+02  1.0858e+02  1.1179e+02  1.0865e+02  1.1964e+02
  1.0812e+02  1.0248e+02  1.0031e+02  9.9612e+01  9.9550e+01  9.9546e+01  9.9666e+01  9.9451e+01  9.9680e+01  9.9681e+01
  1.0320e+02  1.0363e+02  1.0367e+02  1.0341e+02  1.0319e+02  1.0255e+02  1.0468e+02  1.0438e+02  1.0368e+02  1.0518e+02
  1.0394e+02  1.0279e+02  1.0254e+02  1.0250e+02  1.0265e+02  1.0259e+02  1.0245e+02  1.0271e+02  1.0248e+02  1.0252e+02
  1.0238e+02  1.0202e+02  1.0194e+02  1.0175e+02  1.0251e+02  1.0771e+02  1.0974e+02  1.1114e+02  1.1215e+02  1.1283e+02
  1.1067e+02  1.0913e+02  1.0535e+02  1.0609e+02  1.0333e+02  1.0319e+02  1.0355e+02  1.0400e+02  1.0318e+02  1.0220e+02
  1.0118e+02  1.0110e+02  1.0123e+02  1.0118e+02  1.0145e+02  1.0121e+02  1.0114e+02  1.0128e+02  1.0120e+02  1.0107e+02
  1.0105e+02  1.0128e+02  1.0127e+02  1.0116e+02  1.0129e+02  1.0138e+02  1.0176e+02  1.0179e+02  1.0643e+02  1.0318e+02
  1.0307e+02  1.0313e+02  1.0326e+02  1.0372e+02  1.0337e+02  1.0573e+02  1.0851e+02  1.1020e+02  1.0845e+02  1.1857e+02
  1.0902e+02  1.0122e+02  9.9782e+01  9.9612e+01  9.9611e+01  9.9543e+01  9.9448e+01  9.7112e+01  9.9687e+01  9.9670e+01
  1.0324e+02  1.0349e+02  1.0344e+02  1.0345e+02  1.0318e+02  1.0256e+02  1.0479e+02  1.0435e+02  1.0376e+02  1.0437e+02
  1.0329e+02  1.0268e+02  1.0272e+02  1.0284e+02  1.0262e+02  1.0269e+02  1.0248e+02  1.0241e+02  1.0240e+02  1.0237e+02
  1.0230e+02  1.0217e+02  1.0209e+02  1.0178e+02  1.0635e+02  1.0807e+02  1.0951e+02  1.1051e+02  1.1080e+02  1.0958e+02
  1.0891e+02  1.0608e+02  1.0356e+02  1.0393e+02  1.0296e+02  1.0320e+02  1.0380e+02  1.0340e+02  1.0239e+02  1.0122e+02
  1.0121e+02  1.0111e+02  1.0105e+02  1.0113e+02  1.0113e+02  1.0112e+02  1.0121e+02  1.0127e+02  1.0124e+02  1.0116e+02
  1.0132e+02  1.0133e+02  1.0127e+02  1.0164e+02  1.0153e+02  1.0162e+02  1.0191e+02  1.0315e+02  1.0551e+02  1.0304e+02
  1.0310e+02  1.0315e+02  1.0344e+02  1.0434e+02  1.0449e+02  1.0545e+02  1.0943e+02  1.0552e+02  1.1968e+02  1.0695e+02
  1.0184e+02  9.9826e+01  9.9595e+01  9.9608e+01  9.9660e+01  9.9530e+01  9.8567e+01  9.9507e+01  9.9558e+01  9.9672e+01
  1.0354e+02  1.0325e+02  1.0307e+02  1.0324e+02  1.0312e+02  1.0263e+02  1.0281e+02  1.0272e+02  1.0262e+02  1.0258e+02
  1.0267e+02  1.0280e+02  1.0229e+02  1.0262e+02  1.0268e+02  1.0260e+02  1.0286e+02  1.0287e+02  1.0254e+02  1.0220e+02
  1.0203e+02  1.0215e+02  1.0192e+02  1.0392e+02  1.0632e+02  1.0740e+02  1.0861e+02  1.0939e+02  1.0982e+02  1.0832e+02
  1.0610e+02  1.0412e+02  1.0289e+02  1.0237e+02  1.0291e+02  1.0311e+02  1.0328e+02  1.0246e+02  1.0208e+02  1.0115e+02
  1.0109e+02  1.0106e+02  1.0114e+02  1.0113e+02  1.0122e+02  1.0118e+02  1.0125e+02  1.0126e+02  1.0123e+02  1.0121e+02
  1.0144e+02  1.0152e+02  1.0150e+02  1.0161e+02  1.0177e+02  1.0217e+02  1.0228e+02  1.0382e+02  1.0334e+02  1.0287e+02
  1.0293e+02  1.0321e+02  1.0375e+02  1.0612e+02  1.0415e+02  1.0488e+02  1.0563e+02  1.0953e+02  1.1641e+02  1.0824e+02
  1.0022e+02  9.9625e+01  9.9595e+01  9.9540e+01  9.9598e+01  9.9476e+01  9.9034e+01  9.9637e+01  9.9617e+01  9.9612e+01
  1.0356e+02  1.0339e+02  1.0319e+02  1.0329e+02  1.0319e+02  1.0278e+02  1.0274e+02  1.0283e+02  1.0236e+02  1.0284e+02
  1.0272e+02  1.0234e+02  1.0249e+02  1.0252e+02  1.0263e+02  1.0291e+02  1.0293e+02  1.0252e+02  1.0246e+02  1.0199e+02
  1.0197e+02  1.0182e+02  1.0202e+02  1.0522e+02  1.0620e+02  1.0779e+02  1.0777e+02  1.0865e+02  1.0733e+02  1.0684e+02
  1.0430e+02  1.0294e+02  1.0231e+02  1.0246e+02  1.0279e+02  1.0341e+02  1.0257e+02  1.0198e+02  1.0117e+02  1.0117e+02
  1.0104e+02  1.0100e+02  1.0106e+02  1.0117e+02  1.0110e+02  1.0119e+02  1.0119e+02  1.0122e+02  1.0120e+02  1.0138e+02
  1.0152e+02  1.0156e+02  1.0176e+02  1.0184e+02  1.0199e+02  1.0226e+02  1.0316e+02  1.0383e+02  1.0282e+02  1.0284e+02
  1.0284e+02  1.0316e+02  1.0456e+02  1.0768e+02  1.0341e+02  1.0538e+02  1.0491e+02  1.2005e+02  1.0997e+02  1.0205e+02
  9.9518e+01  9.9673e+01  9.9653e+01  9.9616e+01  9.9560e+01  9.7327e+01  9.9532e+01  9.9687e+01  9.9641e+01  9.9640e+01
  1.0343e+02  1.0339e+02  1.0313e+02  1.0324e+02  1.0318e+02  1.0278e+02  1.0275e+02  1.0277e+02  1.0269e+02  1.0267e+02
  1.0238e+02  1.0191e+02  1.0236e+02  1.0236e+02  1.0259e+02  1.0212e+02  1.0213e+02  1.0201e+02  1.0194e+02  1.0176e+02
  1.0191e+02  1.0168e+02  1.0378e+02  1.0493e+02  1.0588e+02  1.0627e+02  1.0713e+02  1.0646e+02  1.0605e+02  1.0447e+02
  1.0286e+02  1.0252e+02  1.0212e+02  1.0264e+02  1.0281e+02  1.0263e+02  1.0208e+02  1.0151e+02  1.0111e+02  1.0104e+02
  1.0099e+02  1.0099e+02  1.0104e+02  1.0108e+02  1.0114e+02  1.0122e+02  1.0115e+02  1.0120e+02  1.0120e+02  1.0141e+02
  1.0156e+02  1.0173e+02  1.0191e+02  1.0207e+02  1.0235e+02  1.0234e+02  1.0291e+02  1.0306e+02  1.0292e+02  1.0275e+02
  1.0291e+02  1.0351e+02  1.0680e+02  1.1184e+02  1.0596e+02  1.0333e+02  1.1188e+02  1.1766e+02  1.1018e+02  1.0064e+02
  9.9585e+01  9.9633e+01  9.9572e+01  9.9646e+01  9.9398e+01  9.9572e+01  9.9602e+01  9.9609e+01  9.9684e+01  9.9667e+01
  1.0250e+02  1.0308e+02  1.0326e+02  1.0342e+02  1.0324e+02  1.0227e+02  1.0237e+02  1.0238e+02  1.0256e+02  1.0236e+02
  1.0235e+02  1.0169e+02  1.0193e+02  1.0211e+02  1.0199e+02  1.0162e+02  1.0140e+02  1.0136e+02  1.0156e+02  1.0163e+02
  1.0167e+02  1.0205e+02  1.0323e+02  1.0398e+02  1.0496e+02  1.0552e+02  1.0617e+02  1.0532e+02  1.0460e+02  1.0299e+02
  1.0221e+02  1.0183e+02  1.0223e+02  1.0254e+02  1.0268e+02  1.0215e+02  1.0180e+02  1.0110e+02  1.0106e+02  1.0105e+02
  1.0097e+02  1.0113e+02  1.0108e+02  1.0101e+02  1.0113e+02  1.0109e+02  1.0116e+02  1.0118e+02  1.0135e+02  1.0154e+02
  1.0147e+02  1.0168e+02  1.0186e+02  1.0211e+02  1.0241e+02  1.0290e+02  1.0322e+02  1.0267e+02  1.0301e+02  1.0334e+02
  1.0319e+02  1.0427e+02  1.0797e+02  1.0710e+02  1.0447e+02  1.0450e+02  1.2017e+02  1.0953e+02  1.0304e+02  9.9957e+01
  9.9621e+01  9.9610e+01  9.9584e+01  9.9566e+01  9.7532e+01  9.9646e+01  9.9685e+01  9.9606e+01  9.9615e+01  9.9612e+01
  1.0291e+02  1.0498e+02  1.0330e+02  1.0317e+02  1.0204e+02  1.0219e+02  1.0213e+02  1.0198e+02  1.0103e+02  1.0157e+02
  1.0160e+02  1.0138e+02  1.0158e+02  1.0123e+02  1.0126e+02  1.0129e+02  1.0134e+02  1.0107e+02  1.0140e+02  1.0162e+02
  1.0147e+02  1.0165e+02  1.0224e+02  1.0329e+02  1.0409e+02  1.0460e+02  1.0428e+02  1.0429e+02  1.0312e+02  1.0233e+02
  1.0189e+02  1.0177e+02  1.0219e+02  1.0243e+02  1.0177e+02  1.0175e+02  1.0117e+02  1.0117e+02  1.0103e+02  1.0100e+02
  1.0096e+02  1.0097e+02  1.0100e+02  1.0107e+02  1.0110e+02  1.0112e+02  1.0108e+02  1.0123e+02  1.0134e+02  1.0147e+02