# MODFLOW2000 Well Package
PARAMETER  0  0
         1        54
         1         0               Stress Period 1
         1        25        54 0.000e+00 
         1         0               Stress Period 2
         1        25        54 0.000e+00 
         1         0               Stress Period 3
         1        25        54 0.000e+00 
         1         0               Stress Period 4
         1        25        54 0.000e+00 
         1         0               Stress Period 5
         1        25        54 0.000e+00 
         1         0               Stress Period 6
         1        25        54 0.000e+00 
         1         0               Stress Period 7
         1        25        54 0.000e+00 
         1         0               Stress Period 8
         1        25        54 0.000e+00 
         1         0               Stress Period 9
         1        25        54 0.000e+00 
         1         0               Stress Period 10
         1        25        54 0.000e+00 
         1         0               Stress Period 11
         1        25        54 0.000e+00 
         1         0               Stress Period 12
         1        25        54 0.000e+00 
         1         0               Stress Period 13
         1        25        54 0.000e+00 
         1         0               Stress Period 14
         1        25        54 0.000e+00 
         1         0               Stress Period 15
         1        25        54 0.000e+00 
         1         0               Stress Period 16
         1        25        54 0.000e+00 
         1         0               Stress Period 17
         1        25        54 0.000e+00 
         1         0               Stress Period 18
         1        25        54 0.000e+00 
         1         0               Stress Period 19
         1        25        54 0.000e+00 
         1         0               Stress Period 20
         1        25        54 0.000e+00 
         1         0               Stress Period 21
         1        25        54 0.000e+00 
         1         0               Stress Period 22
         1        25        54 0.000e+00 
         1         0               Stress Period 23
         1        25        54 0.000e+00 
         1         0               Stress Period 24
         1        25        54 0.000e+00 
         1         0               Stress Period 25
         1        25        54 0.000e+00 
         1         0               Stress Period 26
         1        25        54 0.000e+00 
         1         0               Stress Period 27
         1        25        54 0.000e+00 
         1         0               Stress Period 28
         1        25        54 0.000e+00 
         1         0               Stress Period 29
         1        25        54 0.000e+00 
         1         0               Stress Period 30
         1        25        54 0.000e+00 
         1         0               Stress Period 31
         1        25        54 0.000e+00 
         1         0               Stress Period 32
         1        25        54 0.000e+00 
         1         0               Stress Period 33
         1        25        54 0.000e+00 
         1         0               Stress Period 34
         1        25        54 0.000e+00 
         1         0               Stress Period 35
         1        25        54 0.000e+00 
         1         0               Stress Period 36
         1        25        54 0.000e+00 
         1         0               Stress Period 37
         1        25        54 0.000e+00 
         1         0               Stress Period 38
         1        25        54 0.000e+00 
         1         0               Stress Period 39
         1        25        54 0.000e+00 
         1         0               Stress Period 40
         1        25        54 0.000e+00 
         1         0               Stress Period 41
         1        25        54 0.000e+00 
         1         0               Stress Period 42
         1        25        54 0.000e+00 
         1         0               Stress Period 43
         1        25        54 0.000e+00 
         1         0               Stress Period 44
         1        25        54 0.000e+00 
         1         0               Stress Period 45
         1        25        54 0.000e+00 
         1         0               Stress Period 46
         1        25        54 0.000e+00 
         1         0               Stress Period 47
         1        25        54 0.000e+00 
         1         0               Stress Period 48
         1        25        54 0.000e+00 
         1         0               Stress Period 49
         1        25        54 0.000e+00 
         1         0               Stress Period 50
         1        25        54 0.000e+00 
         1         0               Stress Period 51
         1        25        54 0.000e+00 
         1         0               Stress Period 52
         1        25        54 0.000e+00 
         1         0               Stress Period 53
         1        25        54 0.000e+00 
         1         0               Stress Period 54
         1        25        54 0.000e+00 
         1         0               Stress Period 55
         1        25        54 0.000e+00 
         1         0               Stress Period 56
         1        25        54 0.000e+00 
         1         0               Stress Period 57
         1        25        54 0.000e+00 
         1         0               Stress Period 58
         1        25        54 0.000e+00 
         1         0               Stress Period 59
         1        25        54 0.000e+00 
         1         0               Stress Period 60
         1        25        54 0.000e+00 
         1         0               Stress Period 61
         1        25        54 0.000e+00 
         1         0               Stress Period 62
         1        25        54 0.000e+00 
         1         0               Stress Period 63
         1        25        54 0.000e+00 
         1         0               Stress Period 64
         1        25        54 0.000e+00 
         1         0               Stress Period 65
         1        25        54 0.000e+00 
         1         0               Stress Period 66
         1        25        54 0.000e+00 
         1         0               Stress Period 67
         1        25        54 0.000e+00 
         1         0               Stress Period 68
         1        25        54 0.000e+00 
         1         0               Stress Period 69
         1        25        54 0.000e+00 
         1         0               Stress Period 70
         1        25        54 0.000e+00 
         1         0               Stress Period 71
         1        25        54 0.000e+00 
         1         0               Stress Period 72
         1        25        54 0.000e+00 
         1         0               Stress Period 73
         1        25        54 0.000e+00 
         1         0               Stress Period 74
         1        25        54 0.000e+00 
         1         0               Stress Period 75
         1        25        54 0.000e+00 
         1         0               Stress Period 76
         1        25        54 0.000e+00 
         1         0               Stress Period 77
         1        25        54 0.000e+00 
         1         0               Stress Period 78
         1        25        54 0.000e+00 
         1         0               Stress Period 79
         1        25        54 0.000e+00 
         1         0               Stress Period 80
         1        25        54 0.000e+00 
         1         0               Stress Period 81
         1        25        54 0.000e+00 
         1         0               Stress Period 82
         1        25        54 0.000e+00 
         1         0               Stress Period 83
         1        25        54 0.000e+00 
         1         0               Stress Period 84
         1        25        54 0.000e+00 
         1         0               Stress Period 85
         1        25        54 0.000e+00 
         1         0               Stress Period 86
         1        25        54 0.000e+00 
         1         0               Stress Period 87
         1        25        54 0.000e+00 
         1         0               Stress Period 88
         1        25        54 0.000e+00 
         1         0               Stress Period 89
         1        25        54 0.000e+00 
         1         0               Stress Period 90
         1        25        54 0.000e+00 
         1         0               Stress Period 91
         1        25        54 0.000e+00 
         1         0               Stress Period 92
         1        25        54 0.000e+00 
         1         0               Stress Period 93
         1        25        54 0.000e+00 
         1         0               Stress Period 94
         1        25        54 0.000e+00 
         1         0               Stress Period 95
         1        25        54 0.000e+00 
         1         0               Stress Period 96
         1        25        54 0.000e+00 
         1         0               Stress Period 97
         1        25        54 0.000e+00 
         1         0               Stress Period 98
         1        25        54 0.000e+00 
         1         0               Stress Period 99
         1        25        54 0.000e+00 
         1         0               Stress Period 100
         1        25        54 0.000e+00 
         1         0               Stress Period 101
         1        25        54 0.000e+00 
